=
     RDKit          3D

 11 12  0  0  0  0  0  0  0  0999 V2000
    8.8090  -33.0630  -32.7650 C   0  0  0  0  0  0  0  0  0  0  0  0
    7.4170  -32.9210  -32.8150 C   0  0  0  0  0  0  0  0  0  0  0  0
    6.9330  -31.2240  -31.1900 O   0  0  0  0  0  0  0  0  0  0  0  0
    6.6150  -33.7580  -33.5670 C   0  0  0  0  0  0  0  0  0  0  0  0
    5.3000  -33.3410  -33.4830 N   0  0  0  0  0  0  0  0  0  0  0  0
    4.1750  -33.8500  -34.1570 C   0  0  0  0  0  0  0  0  0  0  0  0
    8.5890  -35.0040  -34.2660 C   0  0  0  0  0  0  0  0  0  0  0  0
    6.5720  -32.0100  -32.1540 C   0  0  0  0  0  0  0  0  0  0  0  0
    9.3530  -34.1750  -33.4970 C   0  0  0  0  0  0  0  0  0  0  0  0
    5.2210  -32.2750  -32.5880 C   0  0  0  0  0  0  0  0  0  0  0  0
    7.1960  -34.8180  -34.3230 C   0  0  0  0  0  0  0  0  0  0  0  0
  1  9  2  0
  1  2  1  0
  2  4  2  0
  2  8  1  0
  3  8  1  0
  4 11  1  0
  4  5  1  0
  5  6  1  0
  5 10  1  0
  7 11  2  0
  7  9  1  0
  8 10  2  0
M  END
$$$$
