=
     RDKit          3D

 26 29  0  0  0  0  0  0  0  0999 V2000
   24.0220  -17.6280  -28.9280 C   0  0  0  0  0  0  0  0  0  0  0  0
   23.1400  -18.5120  -25.8590 O   0  0  0  0  0  0  0  0  0  0  0  0
   25.6640  -21.1550  -23.3990 C   0  0  0  0  0  0  0  0  0  0  0  0
   26.4800  -20.0140  -23.6360 C   0  0  0  0  0  0  0  0  0  0  0  0
   23.5290  -19.8900  -23.9610 C   0  0  0  0  0  0  0  0  0  0  0  0
   23.5140  -21.7890  -22.5830 O   0  0  0  0  0  0  0  0  0  0  0  0
   24.0850  -16.9660  -29.9440 C   0  0  0  0  0  0  0  0  0  0  0  0
   25.3470  -19.1930  -25.7710 C   0  0  0  0  0  0  0  0  0  0  0  0
   26.5420  -19.4540  -24.9520 C   0  0  0  0  0  0  0  0  0  0  0  0
   25.5170  -16.4610  -30.3050 N   0  0  0  0  0  0  0  0  0  0  0  0
   26.4930  -17.7090  -28.0130 C   0  0  0  0  0  0  0  0  0  0  0  0
   25.6560  -16.3160  -31.7090 C   0  0  0  0  0  0  0  0  0  0  0  0
   25.5300  -18.5520  -26.9090 C   0  0  0  0  0  0  0  0  0  0  0  0
   23.9410  -19.6590  -25.4800 C   0  0  0  0  0  0  0  0  0  0  0  0
   24.5480  -17.8800  -27.5890 C   0  0  0  0  0  0  0  0  0  0  0  0
   26.5600  -16.8950  -29.5180 C   0  0  0  0  0  0  0  0  0  0  0  0
   24.2700  -21.1040  -23.4680 C   0  0  0  0  0  0  0  0  0  0  0  0
   23.4990  -17.9110  -27.1010 N   0  0  0  0  0  0  0  0  0  0  0  0
   27.7260  -16.8070  -29.8440 O   0  0  0  0  0  0  0  0  0  0  0  0
   22.0250  -19.7650  -23.9620 C   0  0  0  0  0  0  0  0  0  0  0  0
   20.0960  -18.1870  -23.7120 C   0  0  0  0  0  0  0  0  0  0  0  0
   21.1480  -20.9330  -24.0560 C   0  0  0  0  0  0  0  0  0  0  0  0
   21.4160  -18.5270  -23.6610 C   0  0  0  0  0  0  0  0  0  0  0  0
   19.0310  -19.0200  -23.6730 C   0  0  0  0  0  0  0  0  0  0  0  0
   18.8660  -20.2910  -23.9530 C   0  0  0  0  0  0  0  0  0  0  0  0
   19.8300  -21.2680  -23.6870 C   0  0  0  0  0  0  0  0  0  0  0  0
  1  7  1  0
  1 15  1  0
  2 18  1  0
  2 14  1  0
  3  4  1  0
  3 17  1  0
  4  9  1  0
  5 14  1  0
  5 20  1  0
  5 17  1  0
  6 17  1  0
  7 10  1  0
  8 13  1  0
  8 14  1  0
  8  9  2  0
 10 12  1  0
 10 16  1  0
 11 16  1  0
 11 13  1  0
 13 15  1  0
 15 18  2  0
 16 19  2  0
 20 22  2  0
 20 23  1  0
 21 24  2  0
 21 23  1  0
 22 26  1  0
 24 25  1  0
 25 26  2  0
M  END
$$$$
