=
     RDKit          3D

 26 29  0  0  0  0  0  0  0  0999 V2000
    5.2490  -32.2610  -31.7880 C   0  0  0  0  0  0  0  0  0  0  0  0
    8.2820  -33.0460  -32.8650 O   0  0  0  0  0  0  0  0  0  0  0  0
    8.9950  -36.5840  -35.3910 C   0  0  0  0  0  0  0  0  0  0  0  0
    8.1210  -35.7710  -36.1660 C   0  0  0  0  0  0  0  0  0  0  0  0
    9.7050  -34.6280  -33.9270 C   0  0  0  0  0  0  0  0  0  0  0  0
   11.0670  -36.5170  -34.2110 O   0  0  0  0  0  0  0  0  0  0  0  0
    4.3290  -31.5780  -31.3860 C   0  0  0  0  0  0  0  0  0  0  0  0
    7.0730  -34.4400  -34.2570 C   0  0  0  0  0  0  0  0  0  0  0  0
    6.9900  -35.1580  -35.5390 C   0  0  0  0  0  0  0  0  0  0  0  0
    3.0750  -31.5600  -32.3150 N   0  0  0  0  0  0  0  0  0  0  0  0
    4.4090  -33.2510  -34.0820 C   0  0  0  0  0  0  0  0  0  0  0  0
    1.8950  -31.3540  -31.5560 C   0  0  0  0  0  0  0  0  0  0  0  0
    5.9890  -33.8070  -33.8540 C   0  0  0  0  0  0  0  0  0  0  0  0
    8.2520  -34.4240  -33.3130 C   0  0  0  0  0  0  0  0  0  0  0  0
    5.9800  -32.7870  -32.9380 C   0  0  0  0  0  0  0  0  0  0  0  0
    3.0900  -32.3860  -33.4160 C   0  0  0  0  0  0  0  0  0  0  0  0
    9.8090  -36.0580  -34.3860 C   0  0  0  0  0  0  0  0  0  0  0  0
    7.0150  -32.5010  -32.5060 N   0  0  0  0  0  0  0  0  0  0  0  0
    2.0960  -32.6720  -34.0520 O   0  0  0  0  0  0  0  0  0  0  0  0
   10.6270  -34.0000  -32.9110 C   0  0  0  0  0  0  0  0  0  0  0  0
   12.8790  -32.9680  -32.5420 C   0  0  0  0  0  0  0  0  0  0  0  0
   10.2900  -33.9430  -31.4870 C   0  0  0  0  0  0  0  0  0  0  0  0
   11.9410  -33.6340  -33.2750 C   0  0  0  0  0  0  0  0  0  0  0  0
   12.9370  -32.8480  -31.1970 C   0  0  0  0  0  0  0  0  0  0  0  0
   12.0430  -32.9400  -30.2410 C   0  0  0  0  0  0  0  0  0  0  0  0
   10.9840  -33.8530  -30.2640 C   0  0  0  0  0  0  0  0  0  0  0  0
  1 15  1  0
  1  7  1  0
  2 14  1  0
  2 18  1  0
  3  4  1  0
  3 17  1  0
  4  9  1  0
  5 17  1  0
  5 14  1  0
  5 20  1  0
  6 17  1  0
  7 10  1  0
  8  9  2  0
  8 13  1  0
  8 14  1  0
 10 16  1  0
 10 12  1  0
 11 13  1  0
 11 16  1  0
 13 15  1  0
 15 18  2  0
 16 19  2  0
 20 23  2  0
 20 22  1  0
 21 23  1  0
 21 24  2  0
 22 26  1  0
 24 25  1  0
 25 26  2  0
M  END
$$$$
